44
Y -0.5427143 0.0817929 -1.6460822
H -1.0985778 -0.5809541 0.3335138
C -1.7212416 1.7421958 -3.3148775
C -2.7486827 1.3398723 -2.4073929
C -2.4444571 1.8927943 -1.1296865
C -1.2306305 2.6282408 -1.2410282
C -0.7769303 2.5362584 -2.5938499
C -0.4081738 -2.5548602 -2.0941625
C 0.9230371 -2.0707268 -2.2375921
C 0.9648327 -1.2173391 -3.3841215
C -0.3482894 -1.1821481 -3.9468017
C -1.1977417 -2.0044216 -3.1450914
Y 0.5535175 -0.0985302 1.6459379
H 1.1115166 0.5603398 -0.3346629
C 1.7020687 -1.7728529 3.3218380
C 2.7405148 -1.3779941 2.4236517
C 2.4419669 -1.9253885 1.1423262
C 1.2206848 -2.6501657 1.2420601
C 0.7568287 -2.5570038 2.5913609
C 0.4305645 2.5422882 2.0772683
C -0.8998999 2.0619090 2.2387010
C -0.9308409 1.2166511 3.3915877
C 0.3884043 1.1828453 3.9401896
C 1.2306305 1.9977361 3.1234391
H -0.7689962 -3.2255880 -1.3104301
H 1.7687926 -2.3137241 -1.5932758
H 1.8520416 -0.7174405 -3.7827556
H -0.6458030 -0.6405961 -4.8477112
H 3.0433503 -1.7973572 0.2390400
H 3.6177846 -0.7766575 2.6788686
H -1.8144520 0.7212565 3.8036899
H 0.7844147 3.2063141 1.2847078
H -1.7521230 2.3014709 1.6014969
H 0.6949230 0.6485721 4.8424660
H -3.6228271 0.7304928 -2.6542300
H -0.7333050 3.1743924 -0.4384809
H -1.6804068 1.5062779 -4.3807120
H -3.0367640 1.7604766 -0.2210742
H 0.7252602 -3.1902598 0.4343169
H 1.6543310 -1.5386160 4.3878072
H -0.1383002 -3.0352882 2.9986306
H 2.2964228 2.1847539 3.2831427
H 0.1096838 3.0225835 -3.0101081
H -2.2615946 -2.1911922 -3.3171236
